data_image0
_chemical_formula_structural       C72H
_chemical_formula_sum              "C72 H1"
_cell_length_a       14.6973
_cell_length_b       14.6973
_cell_length_c       12.78
_cell_angle_alpha    90
_cell_angle_beta     90
_cell_angle_gamma    90

_space_group_name_H-M_alt    "P 1"
_space_group_IT_number       1

loop_
  _space_group_symop_operation_xyz
  'x, y, z'

loop_
  _atom_site_type_symbol
  _atom_site_label
  _atom_site_symmetry_multiplicity
  _atom_site_fract_x
  _atom_site_fract_y
  _atom_site_fract_z
  _atom_site_occupancy
  C   C1        1.0  0.66256  0.49908  0.02798  1.0000
  C   C2        1.0  0.64137  0.58273  0.30473  1.0000
  C   C3        1.0  0.64149  0.58234  0.19409  1.0000
  C   C4        1.0  0.58273  0.64455  0.13763  1.0000
  C   C5        1.0  0.58270  0.64463  0.02768  1.0000
  C   C6        1.0  0.50000  0.66831  0.30373  1.0000
  C   C7        1.0  0.50000  0.66809  0.19367  1.0000
  C   C8        1.0  0.41727  0.64455  0.13763  1.0000
  C   C9        1.0  0.41730  0.64463  0.02768  1.0000
  C   C10       1.0  0.35863  0.58273  0.30473  1.0000
  C   C11       1.0  0.35851  0.58234  0.19409  1.0000
  C   C12       1.0  0.33673  0.49942  0.13845  1.0000
  C   C13       1.0  0.33744  0.49908  0.02798  1.0000
  C   C14       1.0  0.35785  0.41668  0.30534  1.0000
  C   C15       1.0  0.35770  0.41652  0.19496  1.0000
  C   C16       1.0  0.41719  0.35455  0.13892  1.0000
  C   C17       1.0  0.41726  0.35401  0.02873  1.0000
  C   C18       1.0  0.50000  0.33212  0.30544  1.0000
  C   C19       1.0  0.50000  0.33214  0.19499  1.0000
  C   C20       1.0  0.58281  0.35455  0.13892  1.0000
  C   C21       1.0  0.58274  0.35401  0.02873  1.0000
  C   C22       1.0  0.64215  0.41668  0.30534  1.0000
  C   C23       1.0  0.64230  0.41652  0.19496  1.0000
  C   C24       1.0  0.66327  0.49942  0.13845  1.0000
  C   C25       1.0  0.66203  0.50003  0.36146  1.0000
  C   C26       1.0  0.63733  0.58120  0.63923  1.0000
  C   C27       1.0  0.63905  0.58239  0.52838  1.0000
  C   C28       1.0  0.58166  0.64646  0.47098  1.0000
  C   C29       1.0  0.58216  0.64493  0.36014  1.0000
  C   C30       1.0  0.50000  0.68759  0.64038  1.0000
  C   C31       1.0  0.50000  0.67133  0.52470  1.0000
  C   C32       1.0  0.41834  0.64646  0.47098  1.0000
  C   C33       1.0  0.41784  0.64493  0.36014  1.0000
  C   C34       1.0  0.36267  0.58120  0.63923  1.0000
  C   C35       1.0  0.36095  0.58239  0.52838  1.0000
  C   C36       1.0  0.33889  0.50022  0.47234  1.0000
  C   C37       1.0  0.33797  0.50003  0.36146  1.0000
  C   C38       1.0  0.35869  0.41540  0.63846  1.0000
  C   C39       1.0  0.35870  0.41627  0.52824  1.0000
  C   C40       1.0  0.41746  0.35436  0.47184  1.0000
  C   C41       1.0  0.41741  0.35469  0.36148  1.0000
  C   C42       1.0  0.50000  0.32995  0.63863  1.0000
  C   C43       1.0  0.50000  0.33069  0.52815  1.0000
  C   C44       1.0  0.58254  0.35436  0.47184  1.0000
  C   C45       1.0  0.58259  0.35469  0.36148  1.0000
  C   C46       1.0  0.64131  0.41540  0.63846  1.0000
  C   C47       1.0  0.64130  0.41627  0.52824  1.0000
  C   C48       1.0  0.66111  0.50022  0.47234  1.0000
  C   C49       1.0  0.66069  0.49854  0.69480  1.0000
  C   C50       1.0  0.64072  0.58165  0.97162  1.0000
  C   C51       1.0  0.63995  0.58118  0.86090  1.0000
  C   C52       1.0  0.58292  0.64518  0.80466  1.0000
  C   C53       1.0  0.58316  0.64546  0.69564  1.0000
  C   C54       1.0  0.50000  0.66976  0.97104  1.0000
  C   C55       1.0  0.50000  0.67115  0.86192  1.0000
  C   C56       1.0  0.41708  0.64518  0.80466  1.0000
  C   C57       1.0  0.41684  0.64546  0.69564  1.0000
  C   C58       1.0  0.35928  0.58165  0.97162  1.0000
  C   C59       1.0  0.36005  0.58118  0.86090  1.0000
  C   C60       1.0  0.33817  0.49856  0.80506  1.0000
  C   C61       1.0  0.33931  0.49854  0.69480  1.0000
  C   C62       1.0  0.35777  0.41556  0.97206  1.0000
  C   C63       1.0  0.35795  0.41518  0.86170  1.0000
  C   C64       1.0  0.41726  0.35318  0.80552  1.0000
  C   C65       1.0  0.41738  0.35289  0.69497  1.0000
  C   C66       1.0  0.50000  0.33099  0.97263  1.0000
  C   C67       1.0  0.50000  0.33043  0.86210  1.0000
  C   C68       1.0  0.58274  0.35318  0.80552  1.0000
  C   C69       1.0  0.58262  0.35289  0.69497  1.0000
  C   C70       1.0  0.64223  0.41556  0.97206  1.0000
  C   C71       1.0  0.64205  0.41518  0.86170  1.0000
  C   C72       1.0  0.66183  0.49856  0.80506  1.0000
  H   H1        1.0  0.50000  0.76223  0.65302  1.0000
